
No compatibility mode selected!


Circuit: * /home/mahimagoyen1996/esim-workspace/mahima_8bit_6tram/mahima_8bit_6tram.cir

Warning: Model issue on line 0 :
  .model x1:cmosp pmos (level=8 version=3.2 tnom=27 tox=4.1e-9 xj=1e-7 nch ...
unrecognized parameter (+) - ignored
Warning: Model issue on line 0 :
  .model x1:x1:cmosp pmos (level=8 version=3.2 tnom=27 tox=4.1e-9 xj=1e-7  ...
unrecognized parameter (+) - ignored
Error on line 0 :
  a.x1.a3 [ x1.net-_u10-pad3_ ] [ x1.net-_u10-pad4_ ] [ x1.net-_u13-pad1_ ] [ x1.net-_u13-pad2_ ] x1:u5
 MIF-ERROR - unable to find definition of model x1:u5
    Simulation interrupted due to error!

Error: circuit not parsed.

Note: no resource usage information for 'time',
	or no active circuit available

Total CPU time (seconds) = 0.026 

Total DRAM available = 257855.305 MB.
DRAM currently available = 225448.656 MB.
Maximum ngspice program size =   74.418 MB.
Current ngspice program size =   11.562 MB.

Shared ngspice pages =    9.137 MB.
Text (code) pages =    6.285 MB.
Stack = 0 bytes.
Library pages =    3.094 MB.

